/*--------------------------------*- C++ -*----------------------------------*\
| =========                 |                                                 |
| \\      /  F ield         | OpenFOAM: The Open Source CFD Toolbox           |
|  \\    /   O peration     | Version:  v2012                                 |
|   \\  /    A nd           | Website:  www.openfoam.com                      |
|    \\/     M anipulation  |                                                 |
\*---------------------------------------------------------------------------*/
FoamFile
{
    version     2.0;
    format      ascii;
    class       dictionary;
    location    "system";
    object      controlDict;
}
// * * * * * * * * * * * * * * * * * * * * * * * * * * * * * * * * * * * * * //

application     isoFoam;

startFrom       startTime;

startTime       0;

stopAt          endTime;

endTime         4;

deltaT          0.01;

writeControl    timeStep;

writeInterval   2;

purgeWrite      0;

writeFormat     ascii;

writePrecision  6;

writeCompression off;

timeFormat      general;

timePrecision   6;

runTimeModifiable true;

//functions
//{
//	forces
//	{
//		type forces;
//		functionObjectLibs ( "libforces.so" ); // lib to load
//		outputControl timeStep;
//		outputInterval 1;
//		patches
//		(
//			left // change to your patch name
//		);
//		// name of fields
//		pName p;
//		UName U;
//		rho rhoInf;
//		log true; // dump to file
//		rhoInf 1025;
//		CofR ( 0 0 0 );
//	}
//	forcesCoeffs
//	{
//		type forceCoeffs;
//		functionObjectLibs ( "libforces.so" ); // lib to load
//		outputControl timeStep;
//		outputInterval 1;
//		patches
//		(
//		left // change to your patch name
//		);
//		// name of fields
//		pName p;
//		UName U;
//		log true; // dump
//		rho rhoInf;
//		rhoInf 1025;
//		CofR ( 0 0 0 );
//		liftDir ( 0 1 0 );
//		dragDir ( 1 0 0 );
//		pitchAxis ( 0 0 0 );
//		magUInf 7.30;
//		lRef 0.305;
//		Aref 0.001525;
//	}
//}

// ************************************************************************* //
