/*--------------------------------*- C++ -*----------------------------------*\
| =========                 |                                                 |
| \\      /  F ield         | OpenFOAM: The Open Source CFD Toolbox           |
|  \\    /   O peration     | Version:  v2012                                 |
|   \\  /    A nd           | Website:  www.openfoam.com                      |
|    \\/     M anipulation  |                                                 |
\*---------------------------------------------------------------------------*/
FoamFile
{
    version     2.0;
    format      ascii;
    class       dictionary;
    location    "system";
    object      fvSolution;
}
// * * * * * * * * * * * * * * * * * * * * * * * * * * * * * * * * * * * * * //

solvers
{
    p
    {
        solver          GAMG;
	smoother        GaussSeidel;
        tolerance       1e-07;
	relTol		0;

    }
    pFinal
    {
        $p;
        relTol          0;
    }

    U
    {
        solver          PBiCG;
	preconditioner  DILU;
        tolerance       1e-06;
	relTol		0;
    }
}

PISO
{
    nCorrectors     2;
    nNonOrthogonalCorrectors 3;//0;
    pRefCell        0;
    pRefValue       0;
}


// ************************************************************************* //

